104
 generated by VMD
  N          6.652000       -0.764000       -1.333000
  HT2        5.760000       -0.450000       -1.766000
  HT3        7.342000       -1.305000       -1.892000
  CA         7.306000        0.408000       -0.585000
  HA         8.253000       -0.035000       -0.313000
  CB         7.329000        1.530000       -1.594000
  HB1        7.786000        2.446000       -1.164000
  HB2        7.862000        1.113000       -2.475000
  HB3        6.363000        1.945000       -1.952000
  C          6.475000        0.890000        0.649000
  O          5.256000        1.022000        0.506000
  N          7.106000        1.140000        1.813000
  HN         8.097000        1.077000        1.900000
  CA         6.403000        1.216000        3.045000
  HA         5.957000        0.255000        3.254000
  CB         7.433000        1.466000        4.142000
  HB1        7.125000        1.694000        5.185000
  HB2        7.925000        0.481000        4.289000
  HB3        8.111000        2.285000        3.817000
  C          5.346000        2.378000        3.083000
  O          4.167000        2.126000        3.487000
  N          5.683000        3.665000        2.796000
  HN         6.621000        3.946000        2.610000
  CA         4.806000        4.804000        2.871000
  HA         4.542000        4.938000        3.910000
  CB         5.620000        6.023000        2.398000
  HB1        5.884000        5.937000        1.322000
  HB2        5.166000        7.020000        2.582000
  HB3        6.585000        6.041000        2.948000
  C          3.473000        4.723000        2.164000
  O          2.420000        4.990000        2.762000
  N          3.468000        4.082000        1.000000
  HN         4.373000        3.795000        0.697000
  CA         2.244000        3.799000        0.274000
  HA         1.643000        4.685000        0.131000
  CB         2.568000        3.443000       -1.242000
  HB1        3.058000        4.326000       -1.705000
  HB2        3.300000        2.608000       -1.293000
  HB3        1.634000        3.075000       -1.717000
  C          1.401000        2.672000        0.935000
  O          0.249000        2.814000        1.426000
  N          2.054000        1.455000        0.902000
  HN         3.004000        1.380000        0.608000
  CA         1.586000        0.197000        1.484000
  HA         0.939000       -0.267000        0.754000
  CB         2.747000       -0.892000        1.561000
  HB1        3.301000       -0.989000        0.603000
  HB2        3.488000       -0.725000        2.372000
  HB3        2.388000       -1.931000        1.726000
  C          0.811000        0.255000        2.774000
  O         -0.282000       -0.302000        2.947000
  N          1.447000        0.803000        3.841000
  HN         2.289000        1.325000        3.729000
  CA         0.783000        1.074000        5.133000
  HA         0.220000        0.180000        5.356000
  CB         1.838000        1.435000        6.164000
  HB1        2.365000        2.360000        5.844000
  HB2        1.417000        1.518000        7.189000
  HB3        2.473000        0.531000        6.286000
  C         -0.300000        2.071000        5.055000
  O         -1.257000        1.868000        5.710000
  N         -0.170000        3.156000        4.298000
  HN         0.639000        3.354000        3.751000
  CA        -1.168000        4.130000        4.258000
  HA        -1.489000        4.348000        5.266000
  CB        -0.381000        5.305000        3.855000
  HB1       -0.164000        5.246000        2.767000
  HB2       -0.906000        6.270000        4.017000
  HB3        0.599000        5.319000        4.379000
  C         -2.373000        3.878000        3.384000
  O         -3.435000        4.377000        3.584000
  N         -2.325000        2.928000        2.435000
  HN        -1.393000        2.768000        2.121000
  CA        -3.469000        2.434000        1.737000
  HA        -4.246000        3.159000        1.542000
  CB        -3.033000        1.815000        0.378000
  HB1       -3.858000        1.198000       -0.039000
  HB2       -2.772000        2.634000       -0.326000
  HB3       -2.254000        1.045000        0.564000
  C         -4.124000        1.358000        2.628000
  O         -5.343000        1.092000        2.587000
  N         -3.347000        0.735000        3.501000
  HN        -2.365000        0.903000        3.530000
  CA        -3.865000       -0.250000        4.460000
  HA        -4.457000       -1.008000        3.970000
  CB        -2.699000       -1.019000        5.112000
  HB1       -2.267000       -1.573000        4.252000
  HB2       -1.928000       -0.295000        5.453000
  HB3       -2.924000       -1.738000        5.928000
  C         -4.673000        0.461000        5.539000
  O         -5.831000        0.107000        5.690000
  C         -5.418000        3.504000        6.993000
  O         -5.425000        4.532000        7.681000
  NT        -6.274000        3.492000        5.892000
  HT1       -6.860000        4.272000        5.676000
  HT2       -6.079000        2.761000        5.237000
  N         -4.151000        1.544000        6.134000
  HN        -3.181000        1.657000        5.933000
  CA        -4.627000        2.188000        7.323000
  HA        -5.397000        1.582000        7.777000
  CB        -3.519000        2.444000        8.325000
  HB1       -2.663000        2.911000        7.792000
  HB2       -3.888000        3.074000        9.163000
  HB3       -3.064000        1.476000        8.623000
