10
 generated by VMD
 Ca       -2.580956       -6.232094        0.260120
 Ca       -3.894695        1.020033        0.050212
 Ca       11.362020       -7.146824        2.267816
 Ca       -3.540796       -7.223682       -0.817796
 Ca        9.255313        5.025655       -3.297032
 Ca       -2.252043        3.368850       -1.072543
 Ca        4.578401        0.079307       -6.768234
 Ca        3.679509       -3.749601       -5.882293
 Ca        2.743039       -1.671710        1.070508
 Ca        2.962403        5.355544       -4.925020
