104
 generated by VMD
  N          5.560308       -2.852692       -4.315433
  HT2        4.668308       -2.538692       -4.748433
  HT3        6.250308       -3.393692       -4.874433
  CA         6.214308       -1.680692       -3.567433
  HA         7.161307       -2.123693       -3.295433
  CB         6.237308       -0.558692       -4.576433
  HB1        6.694307        0.357308       -4.146433
  HB2        6.770308       -0.975692       -5.457433
  HB3        5.271307       -0.143692       -4.934433
  C          5.383307       -1.198692       -2.333433
  O          4.164308       -1.066692       -2.476433
  N          6.014307       -0.948692       -1.169433
  HN         7.005308       -1.011692       -1.082433
  CA         5.311307       -0.872692        0.062567
  HA         4.865307       -1.833692        0.271567
  CB         6.341308       -0.622692        1.159567
  HB1        6.033308       -0.394692        2.202567
  HB2        6.833308       -1.607692        1.306567
  HB3        7.019308        0.196308        0.834567
  C          4.254308        0.289308        0.100567
  O          3.075308        0.037308        0.504567
  N          4.591308        1.576308       -0.186433
  HN         5.529307        1.857308       -0.372433
  CA         3.714308        2.715308       -0.111433
  HA         3.450308        2.849308        0.927567
  CB         4.528307        3.934308       -0.584433
  HB1        4.792307        3.848308       -1.660433
  HB2        4.074307        4.931308       -0.400433
  HB3        5.493308        3.952308       -0.034433
  C          2.381308        2.634308       -0.818433
  O          1.328308        2.901308       -0.220433
  N          2.376308        1.993308       -1.982433
  HN         3.281308        1.706308       -2.285433
  CA         1.152308        1.710308       -2.708433
  HA         0.551308        2.596308       -2.851433
  CB         1.476308        1.354308       -4.224433
  HB1        1.966308        2.237308       -4.687433
  HB2        2.208308        0.519308       -4.275433
  HB3        0.542308        0.986308       -4.699433
  C          0.309308        0.583308       -2.047433
  O         -0.842692        0.725308       -1.556433
  N          0.962308       -0.633692       -2.080433
  HN         1.912308       -0.708692       -2.374433
  CA         0.494308       -1.891692       -1.498433
  HA        -0.152692       -2.355692       -2.228433
  CB         1.655308       -2.980692       -1.421433
  HB1        2.209308       -3.077693       -2.379433
  HB2        2.396308       -2.813692       -0.610433
  HB3        1.296308       -4.019692       -1.256433
  C         -0.280692       -1.833692       -0.208433
  O         -1.373692       -2.390692       -0.035433
  N          0.355308       -1.285692        0.858567
  HN         1.197308       -0.763692        0.746567
  CA        -0.308692       -1.014692        2.150567
  HA        -0.871692       -1.908692        2.373567
  CB         0.746308       -0.653692        3.181567
  HB1        1.273308        0.271308        2.861567
  HB2        0.325308       -0.570692        4.206567
  HB3        1.381308       -1.557692        3.303567
  C         -1.391692       -0.017692        2.072567
  O         -2.348692       -0.220692        2.727567
  N         -1.261692        1.067308        1.315567
  HN        -0.452692        1.265308        0.768567
  CA        -2.259692        2.041308        1.275567
  HA        -2.580692        2.259308        2.283567
  CB        -1.472692        3.216308        0.872567
  HB1       -1.255692        3.157308       -0.215433
  HB2       -1.997692        4.181308        1.034567
  HB3       -0.492692        3.230308        1.396567
  C         -3.464692        1.789308        0.401567
  O         -4.526692        2.288308        0.601567
  N         -3.416692        0.839308       -0.547433
  HN        -2.484692        0.679308       -0.861433
  CA        -4.560692        0.345308       -1.245433
  HA        -5.337692        1.070308       -1.440433
  CB        -4.124692       -0.273692       -2.604433
  HB1       -4.949692       -0.890692       -3.021433
  HB2       -3.863692        0.545308       -3.308433
  HB3       -3.345692       -1.043692       -2.418433
  C         -5.215693       -0.730692       -0.354433
  O         -6.434692       -0.996692       -0.395433
  N         -4.438693       -1.353692        0.518567
  HN        -3.456692       -1.185692        0.547567
  CA        -4.956692       -2.338692        1.477567
  HA        -5.548692       -3.096692        0.987567
  CB        -3.790692       -3.107692        2.129567
  HB1       -3.358692       -3.661692        1.269567
  HB2       -3.019692       -2.383692        2.470567
  HB3       -4.015692       -3.826692        2.945567
  C         -5.764692       -1.627692        2.556567
  O         -6.922692       -1.981692        2.707567
  C         -6.509693        1.415308        4.010567
  O         -6.516693        2.443308        4.698567
  NT        -7.365693        1.403308        2.909567
  HT1       -7.951693        2.183308        2.693568
  HT2       -7.170692        0.672308        2.254567
  N         -5.242692       -0.544692        3.151567
  HN        -4.272693       -0.431692        2.950567
  CA        -5.718692        0.099308        4.340567
  HA        -6.488692       -0.506692        4.794567
  CB        -4.610693        0.355308        5.342567
  HB1       -3.754692        0.822308        4.809567
  HB2       -4.979692        0.985308        6.180567
  HB3       -4.155693       -0.612692        5.640567
104
 generated by VMD
  N          8.033882        0.267664       -2.921327
  HT2        9.015215        0.060063       -2.822615
  HT3        7.931890        1.079701       -3.619653
  CA         7.370097       -0.822840       -3.528578
  HA         6.954990       -0.443984       -4.443530
  CB         8.515090       -1.918685       -3.660049
  HB1        8.002309       -2.804283       -4.150589
  HB2        9.450027       -1.565551       -4.218241
  HB3        9.016579       -2.239404       -2.686661
  C          6.103093       -1.233460       -2.775739
  O          4.993089       -0.854174       -3.089770
  N          6.275682       -1.845337       -1.560983
  HN         7.178778       -2.142714       -1.336729
  CA         5.135222       -2.467155       -0.776169
  HA         4.684646       -3.170722       -1.460143
  CB         5.678290       -3.180790        0.502620
  HB1        4.849867       -3.586712        1.146916
  HB2        6.302632       -4.101021        0.232978
  HB3        6.310750       -2.441917        1.043124
  C          4.184731       -1.465678       -0.240013
  O          2.991616       -1.693016        0.055013
  N          4.674869       -0.188808       -0.100524
  HN         5.630081       -0.002645       -0.482757
  CA         3.886146        0.893697        0.438167
  HA         3.598589        0.605114        1.406352
  CB         4.760943        2.156708        0.473136
  HB1        4.874732        2.732137       -0.494325
  HB2        4.387260        2.899060        1.250096
  HB3        5.811847        1.983236        0.725028
  C          2.635662        1.264290       -0.321014
  O          1.656440        1.746792        0.219689
  N          2.610636        0.951929       -1.605457
  HN         3.437257        0.582883       -2.078729
  CA         1.457617        1.232548       -2.388180
  HA         1.059800        2.175920       -2.118604
  CB         1.861225        1.068357       -3.942473
  HB1        2.763551        1.702405       -4.297191
  HB2        2.165496        0.032654       -4.177292
  HB3        1.017344        1.321664       -4.535877
  C          0.300837        0.193707       -2.092958
  O         -0.844244        0.551889       -2.231145
  N          0.655439       -1.028388       -1.638989
  HN         1.558042       -1.170938       -1.211286
  CA        -0.322684       -1.986037       -1.285832
  HA        -1.184411       -1.883276       -1.900486
  CB         0.312068       -3.337698       -1.471492
  HB1        0.944785       -3.258615       -2.392033
  HB2        0.952225       -3.569644       -0.641898
  HB3       -0.524226       -4.085310       -1.643937
  C         -0.927432       -1.860302        0.093377
  O         -2.142394       -1.977858        0.358356
  N         -0.046276       -1.458530        1.067309
  HN         0.939763       -1.440328        0.878234
  CA        -0.570955       -0.810866        2.265313
  HA        -0.999159       -1.592357        2.856660
  CB         0.708579       -0.362084        3.090368
  HB1        1.060569        0.637555        2.631911
  HB2        0.528527       -0.241131        4.162602
  HB3        1.530773       -1.119039        3.049284
  C         -1.470780        0.436156        2.054548
  O         -2.578632        0.527934        2.552798
  N         -1.078753        1.424073        1.251126
  HN        -0.083903        1.485603        1.014772
  CA        -1.922299        2.522322        0.822927
  HA        -2.164619        3.124404        1.600555
  CB        -1.206128        3.425876       -0.212662
  HB1       -0.848617        2.723864       -0.976784
  HB2       -1.814300        4.187634       -0.569410
  HB3       -0.284195        3.900502        0.210387
  C         -3.211033        2.095148        0.211253
  O         -4.274805        2.621137        0.607261
  N         -3.259698        1.206389       -0.789127
  HN        -2.468524        0.748311       -1.225595
  CA        -4.493556        0.720037       -1.294575
  HA        -4.969136        1.637685       -1.639227
  CB        -4.141231       -0.286428       -2.363995
  HB1       -5.058815       -0.729502       -2.871556
  HB2       -3.567038        0.310552       -3.139745
  HB3       -3.491139       -1.185702       -1.965033
  C         -5.390106        0.102877       -0.265433
  O         -6.653445        0.289885       -0.312780
  N         -4.908402       -0.777473        0.633836
  HN        -3.919869       -0.923034        0.728809
  CA        -5.733015       -1.303538        1.684497
  HA        -6.623491       -1.649814        1.193342
  CB        -4.938301       -2.517023        2.287476
  HB1       -4.432962       -3.059572        1.448773
  HB2       -4.186834       -2.147851        3.069336
  HB3       -5.667890       -3.238264        2.729577
  C         -6.298043       -0.416798        2.737392
  O         -7.268909       -0.743869        3.432951
  C         -7.316709        2.508659        3.570553
  O         -7.779794        3.259029        4.407664
  NT        -7.812946        2.445079        2.293643
  HT1       -8.635530        2.996420        2.181967
  HT2       -7.409319        1.741195        1.735865
  N         -5.634455        0.754796        2.988446
  HN        -4.779109        0.926513        2.583951
  CA        -6.066302        1.696822        3.991007
  HA        -6.242588        1.090261        4.770395
  CB        -5.010015        2.641985        4.288224
  HB1       -4.880225        3.323613        3.449045
  HB2       -5.164355        3.237081        5.242674
  HB3       -4.057982        2.078350        4.247606
104
 generated by VMD
  N          7.976840        0.144562       -3.159889
  HT2        8.952224        0.151768       -3.599673
  HT3        7.527837        1.054928       -3.029620
  CA         7.100461       -0.613606       -4.057449
  HA         6.844424       -0.122260       -4.975101
  CB         7.898973       -1.819408       -4.632174
  HB1        7.320387       -2.423892       -5.367772
  HB2        8.902700       -1.577349       -5.012950
  HB3        8.160241       -2.561291       -3.794098
  C          5.777578       -1.116991       -3.446936
  O          4.678971       -0.769562       -3.879192
  N          5.902733       -1.960950       -2.412552
  HN         6.787841       -2.072963       -2.054055
  CA         4.802849       -2.607366       -1.701032
  HA         4.250299       -3.078167       -2.482592
  CB         5.408957       -3.829222       -0.979541
  HB1        4.581387       -4.437159       -0.564362
  HB2        5.997683       -4.417684       -1.696445
  HB3        6.168074       -3.399941       -0.223678
  C          3.973528       -1.716555       -0.721338
  O          2.935234       -2.083229       -0.186604
  N          4.441068       -0.450293       -0.696189
  HN         5.336449       -0.232203       -1.205991
  CA         3.891920        0.693436       -0.162189
  HA         3.778045        0.532665        0.894565
  CB         4.705328        2.002828       -0.466795
  HB1        5.249894        1.953147       -1.406605
  HB2        4.046601        2.911016       -0.464370
  HB3        5.421104        2.315113        0.402109
  C          2.477753        0.899628       -0.642429
  O          1.576790        1.283838        0.148908
  N          2.115511        0.669797       -1.941659
  HN         2.733141        0.410258       -2.655765
  CA         0.802979        0.855512       -2.429309
  HA         0.382367        1.765126       -1.985820
  CB         1.046143        1.018942       -3.911373
  HB1        1.663109        1.967223       -4.046583
  HB2        1.602101        0.164325       -4.372144
  HB3        0.103261        1.130447       -4.546729
  C         -0.171778       -0.314153       -2.063744
  O         -1.342184       -0.159111       -2.312310
  N          0.255902       -1.478986       -1.629766
  HN         1.222798       -1.676095       -1.644046
  CA        -0.529757       -2.482267       -0.997179
  HA        -1.361610       -2.773393       -1.624693
  CB         0.326476       -3.749940       -0.831321
  HB1        0.793737       -4.160249       -1.741068
  HB2        1.167105       -3.581324       -0.087324
  HB3       -0.389864       -4.513632       -0.392021
  C         -1.101297       -2.025125        0.369443
  O         -2.327816       -2.080808        0.568769
  N         -0.189674       -1.464512        1.220901
  HN         0.812169       -1.465181        1.085611
  CA        -0.503597       -0.778716        2.467262
  HA        -0.869429       -1.509181        3.190374
  CB         0.854543       -0.312061        3.088402
  HB1        1.352273        0.480329        2.549679
  HB2        0.718765       -0.013554        4.127792
  HB3        1.639161       -1.111300        3.142618
  C         -1.374004        0.442245        2.331354
  O         -2.314252        0.674236        3.126604
  N         -1.102152        1.309495        1.313904
  HN        -0.244791        1.267861        0.744747
  CA        -1.889075        2.455765        0.977925
  HA        -2.021823        2.981174        1.891432
  CB        -1.078282        3.355673        0.044106
  HB1       -1.175476        3.006960       -0.967696
  HB2       -1.462324        4.373212        0.085725
  HB3       -0.035049        3.322947        0.323175
  C         -3.308434        2.170523        0.425186
  O         -4.283903        2.826178        0.805190
  N         -3.505515        1.118255       -0.453407
  HN        -2.685606        0.685852       -0.905470
  CA        -4.769753        0.549254       -0.898686
  HA        -5.521970        1.314218       -1.266316
  CB        -4.483103       -0.496282       -2.002789
  HB1       -5.439614       -0.886086       -2.348520
  HB2       -3.844902       -0.090541       -2.837585
  HB3       -3.985820       -1.294278       -1.490313
  C         -5.583284        0.073771        0.252596
  O         -6.764560        0.299076        0.429468
  N         -4.943578       -0.634721        1.199693
  HN        -4.005217       -0.965803        1.064308
  CA        -5.552500       -0.898776        2.477604
  HA        -6.525002       -1.360668        2.353190
  CB        -4.594932       -1.885169        3.253987
  HB1       -4.385373       -2.757384        2.620608
  HB2       -3.630415       -1.358963        3.367123
  HB3       -4.830027       -2.056252        4.326577
  C         -5.785286        0.227413        3.470480
  O         -6.784226        0.332290        4.175896
  C         -5.884865        3.516569        3.632070
  O         -5.799701        4.678261        3.972443
  NT        -6.851950        3.104972        2.784891
  HT1       -7.450807        3.827103        2.498932
  HT2       -7.000124        2.170766        2.530796
  N         -4.826670        1.163200        3.545258
  HN        -4.003955        1.073785        2.984960
  CA        -4.996504        2.402762        4.295661
  HA        -5.513015        2.131056        5.209680
  CB        -3.643626        3.010108        4.812624
  HB1       -2.855504        3.138620        4.005431
  HB2       -3.707502        3.954303        5.318178
  HB3       -3.234241        2.261818        5.497018
104
 generated by VMD
  N          8.311575       -0.514266       -2.188423
  HT2        9.346438       -0.598546       -2.345665
  HT3        8.130776        0.478128       -2.464238
  CA         7.539658       -1.394451       -3.159318
  HA         7.451682       -0.810653       -4.074482
  CB         8.480388       -2.671530       -3.263207
  HB1        8.152257       -3.474607       -3.990885
  HB2        9.480570       -2.437806       -3.619023
  HB3        8.534452       -3.135086       -2.224249
  C          6.075337       -1.742145       -2.792564
  O          5.154747       -1.206336       -3.419489
  N          5.870176       -2.513377       -1.745495
  HN         6.696984       -3.055605       -1.417627
  CA         4.629884       -2.973516       -1.150775
  HA         4.074074       -3.537480       -1.860098
  CB         4.916199       -3.829611        0.105250
  HB1        3.949234       -4.220078        0.535375
  HB2        5.541093       -4.769268       -0.128567
  HB3        5.352632       -3.272318        0.871384
  C          3.760467       -1.886214       -0.599780
  O          2.615586       -2.039174       -0.219549
  N          4.330317       -0.671976       -0.583742
  HN         5.237545       -0.667969       -0.822612
  CA         3.744531        0.661440       -0.340492
  HA         3.492784        0.709717        0.702812
  CB         4.754211        1.764972       -0.696098
  HB1        4.937109        1.681523       -1.763411
  HB2        4.459137        2.869916       -0.432432
  HB3        5.607301        1.574663       -0.048093
  C          2.490980        0.849588       -1.119056
  O          1.521646        1.437454       -0.647248
  N          2.476626        0.330938       -2.388650
  HN         3.259721       -0.181451       -2.752335
  CA         1.326639        0.555250       -3.363457
  HA         1.213081        1.584223       -3.499722
  CB         1.777426       -0.071406       -4.715652
  HB1        2.591841        0.506335       -5.133567
  HB2        2.169157       -1.090118       -4.609054
  HB3        0.908616        0.024087       -5.399951
  C         -0.002294        0.027741       -2.805087
  O         -1.004275        0.706674       -2.938628
  N         -0.063428       -1.235919       -2.249568
  HN         0.744842       -1.748453       -2.142436
  CA        -1.299438       -1.840815       -1.830141
  HA        -2.212790       -1.380917       -2.271974
  CB        -1.207277       -3.390110       -2.060221
  HB1       -1.000270       -3.575696       -3.173840
  HB2       -0.458802       -3.743935       -1.349809
  HB3       -2.122376       -3.924613       -1.725178
  C         -1.405615       -1.659365       -0.276739
  O         -2.477557       -1.858628        0.313965
  N         -0.367769       -1.124782        0.420185
  HN         0.553074       -0.944408       -0.000169
  CA        -0.329248       -0.692181        1.761196
  HA        -0.844139       -1.485350        2.306137
  CB         1.136318       -0.658405        2.210330
  HB1        1.677566        0.205464        1.811075
  HB2        1.386049       -0.584791        3.307341
  HB3        1.600606       -1.544620        1.820528
  C         -1.101424        0.602413        1.961732
  O         -1.711183        0.781555        3.022305
  N         -0.934141        1.444866        0.947630
  HN        -0.163002        1.330751        0.351080
  CA        -1.694789        2.700904        0.880358
  HA        -1.657629        3.137265        1.814337
  CB        -1.027227        3.651913       -0.074654
  HB1       -1.296314        3.548132       -1.152841
  HB2       -1.361597        4.690874        0.277230
  HB3        0.115835        3.541827       -0.062362
  C         -3.140317        2.539276        0.577117
  O         -4.011844        3.184151        1.137365
  N         -3.595155        1.621762       -0.351769
  HN        -2.850317        1.199373       -0.771673
  CA        -4.966830        1.128502       -0.702630
  HA        -5.561541        1.934178       -1.218841
  CB        -4.825681        0.001454       -1.776700
  HB1       -5.735653       -0.163544       -2.381027
  HB2       -3.951715        0.360689       -2.355190
  HB3       -4.582933       -0.920548       -1.342969
  C         -5.731457        0.654489        0.580666
  O         -6.869245        1.014040        0.829415
  N         -5.017258       -0.074275        1.435422
  HN        -4.060487       -0.255860        1.368497
  CA        -5.703176       -0.569334        2.665676
  HA        -6.752560       -0.677085        2.509737
  CB        -4.993567       -1.929329        2.877375
  HB1       -5.242496       -2.395261        1.912750
  HB2       -3.869092       -1.762323        2.943108
  HB3       -5.350636       -2.519789        3.745525
  C         -5.665223        0.376533        3.856592
  O         -6.122745        0.093242        4.932888
  C         -5.635756        3.914397        4.550638
  O         -5.381659        4.818172        5.350112
  NT        -6.330687        4.018257        3.402215
  HT1       -6.895800        4.830889        3.378574
  HT2       -6.449950        3.225391        2.895010
  N         -5.081022        1.620401        3.702179
  HN        -4.598520        1.887623        2.861386
  CA        -4.937449        2.478709        4.835603
  HA        -5.377612        2.164346        5.792207
  CB        -3.422740        2.734530        5.073256
  HB1       -2.997419        3.086564        4.131161
  HB2       -3.231481        3.345890        5.936508
  HB3       -2.894558        1.793857        5.292224
104
 generated by VMD
  N          8.968925       -1.682823       -1.109536
  HT2        9.824627       -2.128462       -0.629764
  HT3        9.212269       -0.773849       -1.620790
  CA         8.256671       -2.674397       -2.081217
  HA         8.572188       -2.440363       -3.105257
  CB         8.876256       -4.049670       -1.687625
  HB1        8.503091       -4.884039       -2.311829
  HB2        9.944656       -3.960258       -1.914676
  HB3        8.854167       -4.250847       -0.624355
  C          6.745011       -2.618009       -2.082222
  O          6.152657       -2.588871       -3.147437
  N          6.121243       -2.750658       -0.902343
  HN         6.687567       -2.826924       -0.128184
  CA         4.632317       -2.917061       -0.730811
  HA         4.090920       -3.428061       -1.585833
  CB         4.478940       -3.848965        0.464268
  HB1        3.490165       -4.220952        0.586084
  HB2        5.101119       -4.694074        0.227032
  HB3        4.804287       -3.270980        1.350009
  C          3.834762       -1.600536       -0.503528
  O          2.666476       -1.624896       -0.127777
  N          4.477265       -0.407263       -0.683520
  HN         5.350826       -0.417263       -1.184726
  CA         3.888101        0.901498       -0.362335
  HA         3.639105        0.921489        0.708389
  CB         4.811672        2.052704       -0.696589
  HB1        5.006164        2.281638       -1.771353
  HB2        4.441732        2.927977       -0.146180
  HB3        5.807231        1.870986       -0.260329
  C          2.541431        1.115536       -1.150149
  O          1.600897        1.712505       -0.645823
  N          2.469684        0.652791       -2.378177
  HN         3.231389        0.158218       -2.764719
  CA         1.311869        0.886221       -3.178672
  HA         0.952064        1.962217       -3.104960
  CB         1.670803        0.546111       -4.660194
  HB1        2.545093        1.170093       -5.038728
  HB2        1.784436       -0.571965       -4.763283
  HB3        0.883797        0.878839       -5.299313
  C          0.043655        0.109067       -2.720472
  O         -1.116234        0.551291       -2.773768
  N          0.270655       -1.104098       -2.327965
  HN         1.168404       -1.450945       -2.298469
  CA        -0.881352       -1.912886       -1.825422
  HA        -1.708753       -1.811777       -2.596740
  CB        -0.363688       -3.366287       -1.736361
  HB1       -0.251740       -3.672748       -2.784736
  HB2        0.602986       -3.578638       -1.303196
  HB3       -1.156388       -4.090408       -1.318850
  C         -1.408351       -1.417596       -0.524639
  O         -2.609831       -1.414364       -0.204154
  N         -0.448815       -0.971949        0.311359
  HN         0.519643       -1.073605       -0.057710
  CA        -0.668072       -0.333417        1.620369
  HA        -1.300351       -0.993458        2.212206
  CB         0.659502       -0.010544        2.349493
  HB1        1.340892        0.732570        1.867602
  HB2        0.354685        0.396463        3.371321
  HB3        1.218030       -0.974691        2.446319
  C         -1.427799        0.955778        1.500689
  O         -2.451890        1.054573        2.133835
  N         -0.998718        1.909590        0.671570
  HN        -0.256033        1.605361        0.056555
  CA        -1.610070        3.232720        0.691811
  HA        -1.599198        3.655839        1.652498
  CB        -0.825037        4.127695       -0.303382
  HB1       -1.023552        3.780388       -1.347710
  HB2       -1.047411        5.195703       -0.358462
  HB3        0.258936        4.094521       -0.041626
  C         -3.018208        3.159951        0.318884
  O         -3.942097        3.823458        0.791003
  N         -3.298244        2.287227       -0.724654
  HN        -2.553339        1.735508       -1.068234
  CA        -4.703647        1.968420       -1.047427
  HA        -5.239696        2.840672       -1.310306
  CB        -4.776899        1.065985       -2.282536
  HB1       -5.803505        0.885429       -2.490999
  HB2       -4.362263        1.600421       -3.129360
  HB3       -4.196037        0.215175       -2.080349
  C         -5.486421        1.239123        0.120106
  O         -6.626235        1.507869        0.448008
  N         -4.898347        0.135855        0.750172
  HN        -3.942061       -0.107366        0.627622
  CA        -5.577247       -0.702708        1.721819
  HA        -6.554361       -1.019953        1.257942
  CB        -4.801244       -1.998453        1.934486
  HB1       -4.726576       -2.621930        1.058584
  HB2       -3.817956       -1.778292        2.438844
  HB3       -5.325893       -2.638648        2.660560
  C         -5.896551       -0.099915        3.029265
  O         -6.899108       -0.466944        3.639899
  C         -6.629385        2.906121        4.461755
  O         -6.944673        3.631527        5.375272
  NT        -7.300434        3.068828        3.276357
  HT1       -8.227574        3.426112        3.379297
  HT2       -6.986712        2.553023        2.451056
  N         -5.128473        0.984640        3.430931
  HN        -4.292537        1.195551        2.885653
  CA        -5.503662        1.787987        4.599468
  HA        -5.967572        1.133616        5.333807
  CB        -4.216226        2.347610        5.136374
  HB1       -3.733518        2.883955        4.229814
  HB2       -4.514442        2.960557        5.989682
  HB3       -3.624836        1.457806        5.471689
