10
 generated by VMD
 Ca        0.823000        2.426000       -4.249000
 Ca       -2.268000        0.188000       -4.127000
 Ca       -3.974000        2.148000       -1.279000
 Ca       -4.229000       -0.182000        1.824000
 Ca       -1.429000        0.614000        4.507000
 Ca        1.171000       -2.094000        3.711000
 Ca       -0.254000       -2.269000        0.111000
 Ca        0.322000        1.566000       -0.020000
 Ca        4.065000        1.066000        0.782000
 Ca        5.351000       -2.000000       -1.019000
