10
 generated by VMD
  CA         7.306000        0.408000       -0.585000
  CA         6.403000        1.216000        3.045000
  CA         4.806000        4.804000        2.871000
  CA         2.244000        3.799000        0.274000
  CA         1.586000        0.197000        1.484000
  CA         0.783000        1.074000        5.133000
  CA        -1.168000        4.130000        4.258000
  CA        -3.469000        2.434000        1.737000
  CA        -3.865000       -0.250000        4.460000
  CA        -4.627000        2.188000        7.323000
